C70H22
  ChemPy            3D                             0

109131  0  0  1  0  0  0  0  0999 V2000
   99.9967  -93.5161   38.9426 H   0  0  0  0  0  0  0  0  0  0  0  0
   98.9216  -92.0856   38.7766 H   0  0  0  0  0  0  0  0  0  0  0  0
   96.9631  -93.3833   39.3890 H   0  0  0  0  0  0  0  0  0  0  0  0
   98.9658  -95.0216   41.5375 H   0  0  0  0  0  0  0  0  0  0  0  0
   98.4483  -95.9782   39.4097 H   0  0  0  0  0  0  0  0  0  0  0  0
   98.7435  -94.7389   37.3595 H   0  0  0  0  0  0  0  0  0  0  0  0
  101.5634  -92.9729   40.1767 H   0  0  0  0  0  0  0  0  0  0  0  0
  100.6783  -91.4396   39.8952 H   0  0  0  0  0  0  0  0  0  0  0  0
  109.9065  -91.2333   30.1566 C   0  0  0  0  0  0  0  0  0  0  0  0
   97.8519  -92.8410   32.0917 O   0  0  0  0  0  0  0  0  0  0  0  0
  102.5111  -91.5530   33.6609 C   0  0  0  0  0  0  0  0  0  0  0  0
   98.6304  -92.2384   28.5761 C   0  0  0  0  0  0  0  0  0  0  0  0
   98.1933  -92.7801   35.6837 C   0  0  0  0  0  0  0  0  0  0  0  0
   97.5906  -92.6787   34.4898 C   0  0  0  0  0  0  0  0  0  0  0  0
  105.6988  -90.9271   37.5389 O   0  0  0  0  0  0  0  0  0  0  0  0
  101.7549  -91.8118   34.8380 C   0  0  0  0  0  0  0  0  0  0  0  0
  102.6417  -91.3561   31.2146 C   0  0  0  0  0  0  0  0  0  0  0  0
  106.8649  -89.7014   26.5619 C   0  0  0  0  0  0  0  0  0  0  0  0
   98.5644  -92.4470   30.9796 C   0  0  0  0  0  0  0  0  0  0  0  0
  106.1169  -90.4605   30.1445 C   0  0  0  0  0  0  0  0  0  0  0  0
  100.3873  -92.1139   34.7156 C   0  0  0  0  0  0  0  0  0  0  0  0
  105.8303  -90.7977   35.1116 N   0  0  0  0  0  0  0  0  0  0  0  0
  104.6295  -90.9777   32.5743 C   0  0  0  0  0  0  0  0  0  0  0  0
   97.4586  -93.1584   36.7870 O   0  0  0  0  0  0  0  0  0  0  0  0
  100.2366  -92.4337   37.1285 C   0  0  0  0  0  0  0  0  0  0  0  0
   99.9765  -91.8329   28.6251 C   0  0  0  0  0  0  0  0  0  0  0  0
  100.7012  -91.5134   27.4660 C   0  0  0  0  0  0  0  0  0  0  0  0
  102.0509  -91.1430   27.5426 C   0  0  0  0  0  0  0  0  0  0  0  0
  102.7103  -91.1075   28.7873 C   0  0  0  0  0  0  0  0  0  0  0  0
  104.0758  -90.7754   28.8676 C   0  0  0  0  0  0  0  0  0  0  0  0
  106.1262  -89.6740   25.2737 C   0  0  0  0  0  0  0  0  0  0  0  0
  106.7936  -89.2635   24.1359 O   0  0  0  0  0  0  0  0  0  0  0  0
  104.8315  -90.0226   25.2020 C   0  0  0  0  0  0  0  0  0  0  0  0
  102.7985  -90.7761   26.3264 C   0  0  0  0  0  0  0  0  0  0  0  0
  104.3688  -91.2676   37.4046 C   0  0  0  0  0  0  0  0  0  0  0  0
   97.2677  -94.2900   38.8663 C   0  0  0  0  0  0  0  0  0  0  0  0
  108.8933  -88.9977   25.3128 C   0  0  0  0  0  0  0  0  0  0  0  0
   99.9024  -92.0271   31.0571 C   0  0  0  0  0  0  0  0  0  0  0  0
   99.7950  -92.1139   33.4439 C   0  0  0  0  0  0  0  0  0  0  0  0
  106.1587  -90.0857   27.7382 C   0  0  0  0  0  0  0  0  0  0  0  0
  106.8288  -90.1268   28.9752 C   0  0  0  0  0  0  0  0  0  0  0  0
  101.9924  -91.4045   29.9601 C   0  0  0  0  0  0  0  0  0  0  0  0
  104.7368  -90.7657   30.1119 C   0  0  0  0  0  0  0  0  0  0  0  0
  100.6227  -91.7506   29.8781 C   0  0  0  0  0  0  0  0  0  0  0  0
   98.7150  -94.4697   40.7931 O   0  0  0  0  0  0  0  0  0  0  0  0
   98.2454  -93.8569   37.7622 C   0  0  0  0  0  0  0  0  0  0  0  0
  104.0974  -90.4247   26.3868 C   0  0  0  0  0  0  0  0  0  0  0  0
  108.1924  -89.8053   29.0296 C   0  0  0  0  0  0  0  0  0  0  0  0
   97.9351  -92.5645   29.7447 C   0  0  0  0  0  0  0  0  0  0  0  0
   99.6283  -92.4262   35.8522 C   0  0  0  0  0  0  0  0  0  0  0  0
  108.9688  -90.0276   30.3155 C   0  0  0  0  0  0  0  0  0  0  0  0
   99.3665  -92.9394   38.2656 C   0  0  0  0  0  0  0  0  0  0  0  0
  101.6579  -91.9169   39.9237 C   0  0  0  0  0  0  0  0  0  0  0  0
  102.2991  -91.8085   38.5609 C   0  0  0  0  0  0  0  0  0  0  0  0
  101.6034  -92.0038   37.3124 C   0  0  0  0  0  0  0  0  0  0  0  0
  102.3535  -91.7389   36.1215 C   0  0  0  0  0  0  0  0  0  0  0  0
  103.7289  -91.3835   36.1761 C   0  0  0  0  0  0  0  0  0  0  0  0
  104.4737  -91.1394   35.0136 C   0  0  0  0  0  0  0  0  0  0  0  0
  106.6037  -90.5662   33.9653 C   0  0  0  0  0  0  0  0  0  0  0  0
  105.9977  -90.6583   32.7036 C   0  0  0  0  0  0  0  0  0  0  0  0
  106.7802  -90.4247   31.4686 C   0  0  0  0  0  0  0  0  0  0  0  0
  108.1050  -90.1833   31.5489 C   0  0  0  0  0  0  0  0  0  0  0  0
  104.7896  -90.4361   27.7026 C   0  0  0  0  0  0  0  0  0  0  0  0
   98.3052  -92.1919   33.2785 C   0  0  0  0  0  0  0  0  0  0  0  0
  108.8427  -89.3310   27.8699 C   0  0  0  0  0  0  0  0  0  0  0  0
  108.8277  -90.0712   32.8684 C   0  0  0  0  0  0  0  0  0  0  0  0
  107.9690  -90.2494   34.0938 C   0  0  0  0  0  0  0  0  0  0  0  0
  108.5439  -90.1286   35.3649 C   0  0  0  0  0  0  0  0  0  0  0  0
  107.7581  -90.3356   36.4974 C   0  0  0  0  0  0  0  0  0  0  0  0
  106.4125  -90.6937   36.3838 C   0  0  0  0  0  0  0  0  0  0  0  0
   97.8724  -95.2061   39.9199 C   0  0  0  0  0  0  0  0  0  0  0  0
  103.6669  -91.4726   38.5799 C   0  0  0  0  0  0  0  0  0  0  0  0
  108.1298  -88.9777   24.2068 C   0  0  0  0  0  0  0  0  0  0  0  0
  100.5427  -91.9201   32.2916 C   0  0  0  0  0  0  0  0  0  0  0  0
  104.0122  -91.0390   31.2999 C   0  0  0  0  0  0  0  0  0  0  0  0
  101.9068  -91.6155   32.3886 C   0  0  0  0  0  0  0  0  0  0  0  0
  108.2279  -89.3284   26.6037 C   0  0  0  0  0  0  0  0  0  0  0  0
  103.8732  -91.2267   33.7453 C   0  0  0  0  0  0  0  0  0  0  0  0
  110.6021  -91.3098   30.9979 H   0  0  0  0  0  0  0  0  0  0  0  0
  109.3470  -92.1730   30.0820 H   0  0  0  0  0  0  0  0  0  0  0  0
  104.1911  -91.3523   39.5267 H   0  0  0  0  0  0  0  0  0  0  0  0
  109.5999  -89.8923   35.4741 H   0  0  0  0  0  0  0  0  0  0  0  0
  109.6333  -90.8111   32.9183 H   0  0  0  0  0  0  0  0  0  0  0  0
  110.5316  -91.1498   29.2614 H   0  0  0  0  0  0  0  0  0  0  0  0
  102.2713  -91.4301   40.6916 H   0  0  0  0  0  0  0  0  0  0  0  0
  108.5034  -88.7544   23.2147 H   0  0  0  0  0  0  0  0  0  0  0  0
  104.3159  -89.9923   24.2471 H   0  0  0  0  0  0  0  0  0  0  0  0
  102.2568  -90.7812   25.3857 H   0  0  0  0  0  0  0  0  0  0  0  0
  100.2089  -91.5553   26.4965 H   0  0  0  0  0  0  0  0  0  0  0  0
   98.1162  -92.3227   27.6207 H   0  0  0  0  0  0  0  0  0  0  0  0
   96.9052  -92.9067   29.6891 H   0  0  0  0  0  0  0  0  0  0  0  0
   96.5364  -92.9138   34.3935 H   0  0  0  0  0  0  0  0  0  0  0  0
   96.4262  -94.8113   38.3916 H   0  0  0  0  0  0  0  0  0  0  0  0
   97.0729  -95.6491   40.5224 H   0  0  0  0  0  0  0  0  0  0  0  0
  111.2176  -89.9886   25.2541 C   0  0  0  0  0  0  0  0  0  0  0  0
  110.3709  -88.7240   25.1687 C   0  0  0  0  0  0  0  0  0  0  0  0
  112.2766  -89.7388   25.1325 H   0  0  0  0  0  0  0  0  0  0  0  0
  111.1029  -90.5024   26.2127 H   0  0  0  0  0  0  0  0  0  0  0  0
  110.9473  -90.6942   24.4609 H   0  0  0  0  0  0  0  0  0  0  0  0
  110.5692  -88.2665   24.1893 H   0  0  0  0  0  0  0  0  0  0  0  0
  110.7109  -87.9717   25.8838 H   0  0  0  0  0  0  0  0  0  0  0  0
  110.2036  -87.5788   28.4860 C   0  0  0  0  0  0  0  0  0  0  0  0
  107.9726  -89.1634   38.4881 C   0  0  0  0  0  0  0  0  0  0  0  0
  110.1585  -88.8813   28.0330 O   0  0  0  0  0  0  0  0  0  0  0  0
  108.3884  -90.2454   37.7424 O   0  0  0  0  0  0  0  0  0  0  0  0
  111.2407  -87.0084   28.7918 O   0  0  0  0  0  0  0  0  0  0  0  0
  108.3874  -88.9153   39.6114 O   0  0  0  0  0  0  0  0  0  0  0  0
  109.2099  -87.1045   28.5429 H   0  0  0  0  0  0  0  0  0  0  0  0
  107.2396  -88.5315   37.9612 H   0  0  0  0  0  0  0  0  0  0  0  0
  9 79  1  0  0  0  0
  9 80  1  0  0  0  0
  9 84  1  0  0  0  0
 11 16  4  0  0  0  0
 12 26  4  0  0  0  0
 12 90  1  0  0  0  0
 13 14  4  0  0  0  0
 13 50  4  0  0  0  0
 14 64  4  0  0  0  0
 14 92  1  0  0  0  0
 15 35  4  0  0  0  0
 16 21  4  0  0  0  0
 16 56  4  0  0  0  0
 17 42  4  0  0  0  0
 17 75  4  0  0  0  0
 18 40  4  0  0  0  0
 10 19  4  0  0  0  0
 19 49  4  0  0  0  0
 20 43  4  0  0  0  0
 20 61  4  0  0  0  0
 21 50  4  0  0  0  0
 22 59  1  0  0  0  0
 22 70  1  0  0  0  0
 23 60  4  0  0  0  0
 23 78  4  0  0  0  0
 13 24  1  0  0  0  0
 25 52  1  0  0  0  0
 25 55  4  0  0  0  0
 26 27  4  0  0  0  0
 27 28  4  0  0  0  0
 27 89  1  0  0  0  0
 28 29  4  0  0  0  0
 28 34  4  0  0  0  0
 29 30  4  0  0  0  0
 30 43  4  0  0  0  0
 30 63  4  0  0  0  0
 18 31  4  0  0  0  0
 31 32  4  0  0  0  0
 32 73  4  0  0  0  0
 31 33  4  0  0  0  0
 33 87  1  0  0  0  0
 34 88  1  0  0  0  0
 35 72  4  0  0  0  0
  3 36  1  0  0  0  0
 36 46  1  0  0  0  0
 36 93  1  0  0  0  0
 37 77  4  0  0  0  0
 37 96  1  0  0  0  0
 19 38  4  0  0  0  0
 21 39  4  0  0  0  0
 39 74  4  0  0  0  0
 40 41  4  0  0  0  0
 20 41  4  0  0  0  0
 41 48  4  0  0  0  0
 29 42  4  0  0  0  0
 42 44  4  0  0  0  0
 43 75  4  0  0  0  0
 26 44  4  0  0  0  0
 38 44  4  0  0  0  0
  4 45  1  0  0  0  0
  6 46  1  0  0  0  0
 24 46  1  0  0  0  0
 46 52  1  0  0  0  0
 33 47  4  0  0  0  0
 34 47  4  0  0  0  0
 48 65  4  0  0  0  0
 12 49  4  0  0  0  0
 49 91  1  0  0  0  0
 25 50  4  0  0  0  0
  9 51  1  0  0  0  0
 48 51  4  0  0  0  0
  1 52  1  0  0  0  0
  2 52  1  0  0  0  0
  7 53  1  0  0  0  0
  8 53  1  0  0  0  0
 53 54  1  0  0  0  0
 53 85  1  0  0  0  0
 54 55  4  0  0  0  0
 54 72  4  0  0  0  0
 55 56  4  0  0  0  0
 56 57  4  0  0  0  0
 35 57  4  0  0  0  0
 57 58  4  0  0  0  0
 22 58  1  0  0  0  0
 59 60  4  0  0  0  0
 59 67  4  0  0  0  0
 60 61  4  0  0  0  0
 61 62  4  0  0  0  0
 51 62  4  0  0  0  0
 62 66  4  0  0  0  0
 40 63  4  0  0  0  0
 47 63  4  0  0  0  0
 10 64  4  0  0  0  0
 39 64  4  0  0  0  0
 65104  1  0  0  0  0
 66 67  4  0  0  0  0
 66 83  1  0  0  0  0
 67 68  4  0  0  0  0
 68 69  4  0  0  0  0
 68 82  1  0  0  0  0
 69 70  4  0  0  0  0
 69105  1  0  0  0  0
 15 70  4  0  0  0  0
  5 71  1  0  0  0  0
 36 71  1  0  0  0  0
 45 71  1  0  0  0  0
 71 94  1  0  0  0  0
 72 81  1  0  0  0  0
 37 73  4  0  0  0  0
 73 86  1  0  0  0  0
 38 74  4  0  0  0  0
 74 76  4  0  0  0  0
 23 75  4  0  0  0  0
 11 76  4  0  0  0  0
 17 76  4  0  0  0  0
 18 77  4  0  0  0  0
 65 77  4  0  0  0  0
 11 78  4  0  0  0  0
 58 78  4  0  0  0  0
 95 96  1  0  0  0  0
 95 97  1  0  0  0  0
 95 98  1  0  0  0  0
 95 99  1  0  0  0  0
 96100  1  0  0  0  0
 96101  1  0  0  0  0
102104  1  0  0  0  0
102106  2  0  0  0  0
102108  1  0  0  0  0
103105  1  0  0  0  0
103107  2  0  0  0  0
103109  1  0  0  0  0
M  END
$$$$
