9115
  PyMOL2.5          3D                             0

 34 39  0  0  0  0  0  0  0  0999 V2000
  112.8637  -31.6204    8.6721 C   0  0  0  0  0  0  0  0  0  0  0  0
  113.0904  -32.3784    9.8109 C   0  0  0  0  0  0  0  0  0  0  0  0
  113.1926  -30.2731    8.6485 C   0  0  0  0  0  0  0  0  0  0  0  0
  113.6197  -31.7633   10.9359 C   0  0  0  0  0  0  0  0  0  0  0  0
  113.9569  -30.4176   10.9330 C   0  0  0  0  0  0  0  0  0  0  0  0
  112.2820  -32.2375    7.4962 C   0  0  0  0  0  0  0  0  0  0  0  0
  112.7709  -33.8450    9.8300 C   0  0  0  0  0  0  0  0  0  0  0  0
  113.0600  -29.4974    7.3777 C   0  0  0  0  0  0  0  0  0  0  0  0
  113.8757  -32.5498   12.1170 C   0  0  0  0  0  0  0  0  0  0  0  0
  114.0395  -28.3002    9.7449 C   0  0  0  0  0  0  0  0  0  0  0  0
  114.5452  -29.8415   12.0568 C   0  0  0  0  0  0  0  0  0  0  0  0
  111.9734  -31.4349    6.4654 C   0  0  0  0  0  0  0  0  0  0  0  0
  111.9972  -33.7107    7.6190 C   0  0  0  0  0  0  0  0  0  0  0  0
  114.4815  -31.9594   13.1583 C   0  0  0  0  0  0  0  0  0  0  0  0
  114.6241  -27.7173   10.8791 C   0  0  0  0  0  0  0  0  0  0  0  0
  113.7785  -27.5470    8.4602 C   0  0  0  0  0  0  0  0  0  0  0  0
  114.8778  -28.4871   12.0317 C   0  0  0  0  0  0  0  0  0  0  0  0
  114.3048  -33.9732   14.3758 C   0  0  0  0  0  0  0  0  0  0  0  0
  113.5039  -33.9895   12.0552 C   0  0  0  0  0  0  0  0  0  0  0  0
  114.3421  -34.7525   13.0658 C   0  0  0  0  0  0  0  0  0  0  0  0
  112.1826  -30.0732    6.3969 O   0  0  0  0  0  0  0  0  0  0  0  0
  112.9260  -34.3547    8.5017 O   0  0  0  0  0  0  0  0  0  0  0  0
  113.6617  -34.5174   10.7353 O   0  0  0  0  0  0  0  0  0  0  0  0
  112.7171  -28.1469    7.6981 O   0  0  0  0  0  0  0  0  0  0  0  0
  114.8480  -32.6502   14.2993 O   0  0  0  0  0  0  0  0  0  0  0  0
  114.8296  -30.5963   13.1838 O   0  0  0  0  0  0  0  0  0  0  0  0
  114.8365  -34.5139   15.1643 H   0  0  0  0  0  0  0  0  0  0  0  0
  113.9143  -35.7498   13.2109 H   0  0  0  0  0  0  0  0  0  0  0  0
  115.3716  -34.8722   12.7074 H   0  0  0  0  0  0  0  0  0  0  0  0
  111.4654  -31.7760    5.5713 H   0  0  0  0  0  0  0  0  0  0  0  0
  112.0656  -34.2037    6.6442 H   0  0  0  0  0  0  0  0  0  0  0  0
  114.8927  -26.6629   10.8773 H   0  0  0  0  0  0  0  0  0  0  0  0
  113.4713  -26.5207    8.6852 H   0  0  0  0  0  0  0  0  0  0  0  0
  115.3397  -28.0277   12.9017 H   0  0  0  0  0  0  0  0  0  0  0  0
  1  2  1  0  0  0  0
  1  3  1  0  0  0  0
  1  6  1  0  0  0  0
  2  4  1  0  0  0  0
  2  7  1  0  0  0  0
  3  8  1  0  0  0  0
  4  5  4  0  0  0  0
  4  9  4  0  0  0  0
  5 11  4  0  0  0  0
  6 12  1  0  0  0  0
  6 13  1  0  0  0  0
  7 22  1  0  0  0  0
  7 23  1  0  0  0  0
  8 21  1  0  0  0  0
  8 24  1  0  0  0  0
  9 14  4  0  0  0  0
  9 19  1  0  0  0  0
 10 15  1  0  0  0  0
 10 16  1  0  0  0  0
 11 17  1  0  0  0  0
 11 26  4  0  0  0  0
 12 21  1  0  0  0  0
 12 30  1  0  0  0  0
 13 31  1  0  0  0  0
 14 25  1  0  0  0  0
 14 26  4  0  0  0  0
 15 17  1  0  0  0  0
 15 32  1  0  0  0  0
 16 33  1  0  0  0  0
 17 34  1  0  0  0  0
 18 20  1  0  0  0  0
 18 25  1  0  0  0  0
 18 27  1  0  0  0  0
 19 20  1  0  0  0  0
 20 28  1  0  0  0  0
 20 29  1  0  0  0  0
 13 22  1  0  0  0  0
 19 23  1  0  0  0  0
 16 24  1  0  0  0  0
M  END
